-------------------------------------------------------
          Amber 20 PMEMD                              2020
          -------------------------------------------------------

  [-O]verwriting output

File Assignments:

 Here is the input file:

Equilibration Step 1: backbone atoms restrained
 &cntrl
  imin=0, irest=1, ntx=5,
  nstlim=100000, dt=0.002,
  ntwr=0, ntpr=2500, ntwx=2500, ntxo=2, ioutfm=1,
  ntc=2, ntf=2,
  cut=9.0,
  ntt=3, gamma_ln=2.0, temp0=300.0, ig=-1,
  ntb=2, ntp=1, barostat=1, taup=1.0, pres0=1.01325,
  ntr=1, restraint_wt=5.0, restraintmask='@CA,C,O,N',
 /

Note: ig = -1. Setting random seed to    42451 based on wallclock time in
      microseconds.

--------------------------------------------------------------------------------
   1.  RESOURCE   USE:
--------------------------------------------------------------------------------

 getting box info from netcdf restart file
 NATOM  =  163390 NTYPES =      19 NBONH =  150648 MBONA  =   13078
 NTHETH =   27652 MTHETA =   17945 NPHIH =   55723 MPHIA  =   53450
 NHPARM =       0 NPARM  =       0 NNB   =  322187 NRES   =   47666
 NBONA  =   13078 NTHETA =   17945 NPHIA =   53450 NUMBND =     105
 NUMANG =     242 NPTRA  =     235 NATYP =      47 NPHB   =       0
 IFBOX  =       2 NMXRS  =      34 IFCAP =       0 NEXTRA =       0
 NCOPY  =       0

     BOX TYPE: TRUNCATED OCTAHEDRON

--------------------------------------------------------------------------------
   2.  CONTROL  DATA  FOR  THE  RUN
--------------------------------------------------------------------------------

default_name

General flags:
     imin    =       0, nmropt  =       0

Nature and format of input:
     ntx     =       5, irest   =       1, ntrx    =       1

Nature and format of output:
     ntxo    =       2, ntpr    =    2500, ntrx    =       1, ntwr    =  100000
     iwrap   =       0, ntwx    =    2500, ntwv    =       0, ntwe    =       0
     ioutfm  =       1, ntwprt  =       0, idecomp =       0, rbornstat=      0

Potential function:
     ntf     =       2, ntb     =       2, igb     =       0, nsnb    =      25
     ipol    =       0, gbsa    =       0, iesp    =       0
     dielc   =   1.00000, cut     =   9.00000, intdiel =   1.00000

Frozen or restrained atoms:
     ibelly  =       0, ntr     =       1
     restraint_wt =   5.00000

Molecular dynamics:
     nstlim  =    100000, nscm    =         0, nrespa  =         1
     t       =   0.00000, dt      =   0.00200, vlimit  =  -1.00000

Langevin dynamics temperature regulation:
     ig      =   42451
     temp0   = 300.00000, tempi   =   0.00000, gamma_ln=   2.00000

Pressure regulation:
     ntp     =       1
     pres0   =   1.01325, comp    =  44.60000, taup    =   1.00000

SHAKE:
     ntc     =       2, jfastw  =       0
     tol     =   0.00001

Ewald parameters:
     verbose =       0, ew_type =       0, nbflag  =       1, use_pme =       1
     vdwmeth =       1, eedmeth =       1, netfrc  =       1
     Box X =  133.687   Box Y =  133.687   Box Z =  133.687
     Alpha =  109.471   Beta  =  109.471   Gamma =  109.471
     NFFT1 =  128       NFFT2 =  128       NFFT3 =  128
     Cutoff=    9.000   Tol   =0.100E-04
     Ewald Coefficient =  0.30768
     Interpolation order =    4

    LOADING THE CONSTRAINED ATOMS AS GROUPS

   5.  REFERENCE ATOM COORDINATES

  default_name
     Mask @CA,C,O,N; matches 51637 atoms

--------------------------------------------------------------------------------
   3.  ATOMIC COORDINATES AND VELOCITIES
--------------------------------------------------------------------------------

default_name
 begin time read from input coords =    50.000 ps

 Number of triangulated 3-point waters found:    46181

     Sum of charges from parm topology file =  -0.00000063
     Forcing neutrality...

--------------------------------------------------------------------------------
   4.  RESULTS
 NSTEP =     2500   TIME(PS) =      55.000  TEMP(K) =   301.31  PRESS =    10.1
 Etot   =   -388255.4734  EKtot   =    101647.7344  EPtot      =   -489903.2077
 BOND   =      5037.9800  ANGLE   =     13271.0540  DIHED      =     20010.8354
 1-4 NB =      5731.9386  1-4 EEL =     50300.3340  VDWAALS    =     76530.8719
 EELEC  =   -684426.8627  EHBOND  =         0.0000  RESTRAINT  =     23640.6410
 EAMBER (non-restraint)  =   -513543.8487
 EKCMT  =     41443.8672  VIRIAL  =     41031.7838  VOLUME     =   1889026.9813
                                                    Density    =         0.8917
 ------------------------------------------------------------------------------

      A V E R A G E S   O V E R      40 S T E P S

 NSTEP =   100000   TIME(PS) =     250.000  TEMP(K) =   299.83  PRESS =     2.1
 Etot   =   -388135.2413  EKtot   =    101145.6533  EPtot      =   -489280.8946
 BOND   =      5035.4558  ANGLE   =     13087.4665  DIHED      =     20063.5024
 1-4 NB =      5760.3683  1-4 EEL =     50379.0553  VDWAALS    =     76369.6463
 EELEC  =   -684191.3692  EHBOND  =         0.0000  RESTRAINT  =     24214.9799
 EAMBER (non-restraint)  =   -513495.8746
 EKCMT  =     41420.5053  VIRIAL  =     41336.5162  VOLUME     =   1890040.5012
                                                    Density    =         0.8912
 ------------------------------------------------------------------------------

      R M S  F L U C T U A T I O N S

 NSTEP =   100000   TIME(PS) =     250.000  TEMP(K) =     0.82  PRESS =    59.6
 Etot   =       386.6621  EKtot   =       275.2711  EPtot      =       346.0150
 BOND   =        65.5396  ANGLE   =        88.0713  DIHED      =        52.1024
 1-4 NB =        29.0372  1-4 EEL =        81.4116  VDWAALS    =       261.5960
 EELEC  =       380.5709  EHBOND  =         0.0000  RESTRAINT  =       187.3035
 EAMBER (non-restraint)  =       158.7115
 EKCMT  =       184.1115  VIRIAL  =      2452.1317  VOLUME     =       488.4269
                                                    Density    =         0.0002
 ------------------------------------------------------------------------------
