-------------------------------------------------------
          Amber 20 PMEMD                              2020
          -------------------------------------------------------

  [-O]verwriting output

File Assignments:

 Here is the input file:

Equilibration Step 2: backbone atoms restrained
 &cntrl
  imin=0, irest=1, ntx=5,
  nstlim=100000, dt=0.002,
  ntwr=0, ntpr=2500, ntwx=2500, ntxo=2, ioutfm=1,
  ntc=2, ntf=2,
  cut=9.0,
  ntt=3, gamma_ln=2.0, temp0=300.0, ig=-1,
  ntb=2, ntp=1, barostat=1, taup=1.0, pres0=1.01325,
  ntr=1, restraint_wt=1.0, restraintmask='@CA,C,O,N',
 /

Note: ig = -1. Setting random seed to   577498 based on wallclock time in
      microseconds.

--------------------------------------------------------------------------------
   1.  RESOURCE   USE:
--------------------------------------------------------------------------------

 getting box info from netcdf restart file
 NATOM  =  163390 NTYPES =      19 NBONH =  150648 MBONA  =   13078
 NTHETH =   27652 MTHETA =   17945 NPHIH =   55723 MPHIA  =   53450
 NHPARM =       0 NPARM  =       0 NNB   =  322187 NRES   =   47666
 NBONA  =   13078 NTHETA =   17945 NPHIA =   53450 NUMBND =     105
 NUMANG =     242 NPTRA  =     235 NATYP =      47 NPHB   =       0
 IFBOX  =       2 NMXRS  =      34 IFCAP =       0 NEXTRA =       0
 NCOPY  =       0

     BOX TYPE: TRUNCATED OCTAHEDRON

--------------------------------------------------------------------------------
   2.  CONTROL  DATA  FOR  THE  RUN
--------------------------------------------------------------------------------

default_name

General flags:
     imin    =       0, nmropt  =       0

Nature and format of input:
     ntx     =       5, irest   =       1, ntrx    =       1

Nature and format of output:
     ntxo    =       2, ntpr    =    2500, ntrx    =       1, ntwr    =  100000
     iwrap   =       0, ntwx    =    2500, ntwv    =       0, ntwe    =       0
     ioutfm  =       1, ntwprt  =       0, idecomp =       0, rbornstat=      0

Potential function:
     ntf     =       2, ntb     =       2, igb     =       0, nsnb    =      25
     ipol    =       0, gbsa    =       0, iesp    =       0
     dielc   =   1.00000, cut     =   9.00000, intdiel =   1.00000

Frozen or restrained atoms:
     ibelly  =       0, ntr     =       1
     restraint_wt =   1.00000

Molecular dynamics:
     nstlim  =    100000, nscm    =         0, nrespa  =         1
     t       =   0.00000, dt      =   0.00200, vlimit  =  -1.00000

Langevin dynamics temperature regulation:
     ig      =  577498
     temp0   = 300.00000, tempi   =   0.00000, gamma_ln=   2.00000

Pressure regulation:
     ntp     =       1
     pres0   =   1.01325, comp    =  44.60000, taup    =   1.00000

SHAKE:
     ntc     =       2, jfastw  =       0
     tol     =   0.00001

Ewald parameters:
     verbose =       0, ew_type =       0, nbflag  =       1, use_pme =       1
     vdwmeth =       1, eedmeth =       1, netfrc  =       1
     Box X =  134.902   Box Y =  134.902   Box Z =  134.902
     Alpha =  109.471   Beta  =  109.471   Gamma =  109.471
     NFFT1 =  128       NFFT2 =  128       NFFT3 =  128
     Cutoff=    9.000   Tol   =0.100E-04
     Ewald Coefficient =  0.30768
     Interpolation order =    4

    LOADING THE CONSTRAINED ATOMS AS GROUPS

   5.  REFERENCE ATOM COORDINATES

  default_name
     Mask @CA,C,O,N; matches 51637 atoms

--------------------------------------------------------------------------------
   3.  ATOMIC COORDINATES AND VELOCITIES
--------------------------------------------------------------------------------

default_name
 begin time read from input coords =   250.000 ps

 Number of triangulated 3-point waters found:    46181

     Sum of charges from parm topology file =  -0.00000063
     Forcing neutrality...

--------------------------------------------------------------------------------
   4.  RESULTS
 NSTEP =     2500   TIME(PS) =     255.000  TEMP(K) =   299.01  PRESS =   -97.9
 Etot   =   -382438.5319  EKtot   =    100871.4375  EPtot      =   -483309.9694
 BOND   =      4999.4018  ANGLE   =     12928.1847  DIHED      =     20069.3592
 1-4 NB =      5762.7067  1-4 EEL =     50442.2583  VDWAALS    =     66221.9524
 EELEC  =   -664247.9427  EHBOND  =         0.0000  RESTRAINT  =     20514.1101
 EAMBER (non-restraint)  =   -503824.0795
 EKCMT  =     41161.8255  VIRIAL  =     45054.8342  VOLUME     =   1841477.5253
                                                    Density    =         0.9147
 ------------------------------------------------------------------------------

      A V E R A G E S   O V E R      40 S T E P S

 NSTEP =   100000   TIME(PS) =     450.000  TEMP(K) =   299.99  PRESS =    19.1
 Etot   =   -375987.8599  EKtot   =    101201.8008  EPtot      =   -477189.6606
 BOND   =      5015.9987  ANGLE   =     13055.0436  DIHED      =     20009.9544
 1-4 NB =      5784.0137  1-4 EEL =     50486.8565  VDWAALS    =     65010.3150
 EELEC  =   -661060.8470  EHBOND  =         0.0000  RESTRAINT  =     24509.0044
 EAMBER (non-restraint)  =   -501698.6650
 EKCMT  =     41444.5128  VIRIAL  =     40696.6750  VOLUME     =   1820875.5942
                                                    Density    =         0.9250
 ------------------------------------------------------------------------------

      R M S  F L U C T U A T I O N S

 NSTEP =   100000   TIME(PS) =     450.000  TEMP(K) =     0.54  PRESS =    73.8
 Etot   =      1539.8761  EKtot   =       181.7720  EPtot      =      1493.1115
 BOND   =        63.2682  ANGLE   =        94.5442  DIHED      =        44.2875
 1-4 NB =        26.9649  1-4 EEL =        81.6072  VDWAALS    =       441.5906
 EELEC  =       878.9749  EHBOND  =         0.0000  RESTRAINT  =      1025.6637
 EAMBER (non-restraint)  =       467.4478
 EKCMT  =       132.8646  VIRIAL  =      2873.4321  VOLUME     =      5255.4620
                                                    Density    =         0.0027
 ------------------------------------------------------------------------------
