-------------------------------------------------------
          Amber 20 PMEMD                              2020
          -------------------------------------------------------

  [-O]verwriting output

File Assignments:

 Here is the input file:

Equilibration Step 3: backbone atoms restrained
 &cntrl
  imin=0, irest=1, ntx=5,
  nstlim=100000, dt=0.002,
  ntwr=0, ntpr=2500, ntwx=2500, ntxo=2, ioutfm=1,
  ntc=2, ntf=2,
  cut=9.0,
  ntt=3, gamma_ln=2.0, temp0=300.0, ig=-1,
  ntb=2, ntp=1, barostat=1, taup=1.0, pres0=1.01325,
  ntr=1, restraint_wt=0.1, restraintmask='@CA,C,O,N',
 /

Note: ig = -1. Setting random seed to     1209 based on wallclock time in
      microseconds.

--------------------------------------------------------------------------------
   1.  RESOURCE   USE:
--------------------------------------------------------------------------------

 getting box info from netcdf restart file
 NATOM  =  163390 NTYPES =      19 NBONH =  150648 MBONA  =   13078
 NTHETH =   27652 MTHETA =   17945 NPHIH =   55723 MPHIA  =   53450
 NHPARM =       0 NPARM  =       0 NNB   =  322187 NRES   =   47666
 NBONA  =   13078 NTHETA =   17945 NPHIA =   53450 NUMBND =     105
 NUMANG =     242 NPTRA  =     235 NATYP =      47 NPHB   =       0
 IFBOX  =       2 NMXRS  =      34 IFCAP =       0 NEXTRA =       0
 NCOPY  =       0

     BOX TYPE: TRUNCATED OCTAHEDRON

--------------------------------------------------------------------------------
   2.  CONTROL  DATA  FOR  THE  RUN
--------------------------------------------------------------------------------

default_name

General flags:
     imin    =       0, nmropt  =       0

Nature and format of input:
     ntx     =       5, irest   =       1, ntrx    =       1

Nature and format of output:
     ntxo    =       2, ntpr    =    2500, ntrx    =       1, ntwr    =  100000
     iwrap   =       0, ntwx    =    2500, ntwv    =       0, ntwe    =       0
     ioutfm  =       1, ntwprt  =       0, idecomp =       0, rbornstat=      0

Potential function:
     ntf     =       2, ntb     =       2, igb     =       0, nsnb    =      25
     ipol    =       0, gbsa    =       0, iesp    =       0
     dielc   =   1.00000, cut     =   9.00000, intdiel =   1.00000

Frozen or restrained atoms:
     ibelly  =       0, ntr     =       1
     restraint_wt =   0.10000

Molecular dynamics:
     nstlim  =    100000, nscm    =         0, nrespa  =         1
     t       =   0.00000, dt      =   0.00200, vlimit  =  -1.00000

Langevin dynamics temperature regulation:
     ig      =    1209
     temp0   = 300.00000, tempi   =   0.00000, gamma_ln=   2.00000

Pressure regulation:
     ntp     =       1
     pres0   =   1.01325, comp    =  44.60000, taup    =   1.00000

SHAKE:
     ntc     =       2, jfastw  =       0
     tol     =   0.00001

Ewald parameters:
     verbose =       0, ew_type =       0, nbflag  =       1, use_pme =       1
     vdwmeth =       1, eedmeth =       1, netfrc  =       1
     Box X =  133.151   Box Y =  133.151   Box Z =  133.151
     Alpha =  109.471   Beta  =  109.471   Gamma =  109.471
     NFFT1 =  128       NFFT2 =  128       NFFT3 =  128
     Cutoff=    9.000   Tol   =0.100E-04
     Ewald Coefficient =  0.30768
     Interpolation order =    4

    LOADING THE CONSTRAINED ATOMS AS GROUPS

   5.  REFERENCE ATOM COORDINATES

  default_name
     Mask @CA,C,O,N; matches 51637 atoms

--------------------------------------------------------------------------------
   3.  ATOMIC COORDINATES AND VELOCITIES
--------------------------------------------------------------------------------

default_name
 begin time read from input coords =   450.000 ps

 Number of triangulated 3-point waters found:    46181

     Sum of charges from parm topology file =  -0.00000063
     Forcing neutrality...

--------------------------------------------------------------------------------
   4.  RESULTS
 NSTEP =     2500   TIME(PS) =     455.000  TEMP(K) =   298.71  PRESS =  -121.8
 Etot   =   -376500.3367  EKtot   =    100767.8281  EPtot      =   -477268.1648
 BOND   =      4969.2665  ANGLE   =     13034.3762  DIHED      =     19926.5090
 1-4 NB =      5821.2051  1-4 EEL =     50623.6779  VDWAALS    =     53800.5415
 EELEC  =   -646974.9457  EHBOND  =         0.0000  RESTRAINT  =     21531.2046
 EAMBER (non-restraint)  =   -498799.3694
 EKCMT  =     41330.1533  VIRIAL  =     45773.3220  VOLUME     =   1690146.3013
                                                    Density    =         0.9966
 ------------------------------------------------------------------------------

      A V E R A G E S   O V E R      40 S T E P S

 NSTEP =   100000   TIME(PS) =     650.000  TEMP(K) =   299.60  PRESS =     1.6
 Etot   =   -359647.9949  EKtot   =    101070.1715  EPtot      =   -460718.1664
 BOND   =      4983.5736  ANGLE   =     12967.0308  DIHED      =     19817.9036
 1-4 NB =      5783.9778  1-4 EEL =     50656.4009  VDWAALS    =     53151.2756
 EELEC  =   -646870.8909  EHBOND  =         0.0000  RESTRAINT  =     38792.5622
 EAMBER (non-restraint)  =   -499510.7286
 EKCMT  =     41398.8181  VIRIAL  =     41343.0970  VOLUME     =   1657802.0579
                                                    Density    =         1.0160
 ------------------------------------------------------------------------------

      R M S  F L U C T U A T I O N S

 NSTEP =   100000   TIME(PS) =     650.000  TEMP(K) =     0.77  PRESS =    91.9
 Etot   =      3260.3885  EKtot   =       259.0619  EPtot      =      3192.9357
 BOND   =        63.2861  ANGLE   =        89.5942  DIHED      =        62.7226
 1-4 NB =        29.1843  1-4 EEL =        76.5336  VDWAALS    =       257.5482
 EELEC  =       475.0764  EHBOND  =         0.0000  RESTRAINT  =      3341.9084
 EAMBER (non-restraint)  =      -148.9727
 EKCMT  =       171.4479  VIRIAL  =      3277.3381  VOLUME     =      5620.4365
                                                    Density    =         0.0034
 ------------------------------------------------------------------------------
