-------------------------------------------------------
          Amber 20 PMEMD                              2020
          -------------------------------------------------------

  [-O]verwriting output

File Assignments:

 Here is the input file:

Equilibration Step 1: backbone atoms restrained
 &cntrl
  imin=0, irest=1, ntx=5,
  nstlim=100000, dt=0.002,
  ntwr=0, ntpr=2500, ntwx=2500, ntxo=2, ioutfm=1,
  ntc=2, ntf=2,
  cut=9.0,
  ntt=3, gamma_ln=2.0, temp0=300.0, ig=-1,
  ntb=2, ntp=1, barostat=1, taup=1.0, pres0=1.01325,
  ntr=1, restraint_wt=5.0, restraintmask='@CA,C,O,N',
 /

Note: ig = -1. Setting random seed to    45470 based on wallclock time in
      microseconds.

--------------------------------------------------------------------------------
   1.  RESOURCE   USE:
--------------------------------------------------------------------------------

 getting box info from netcdf restart file
 NATOM  =  153125 NTYPES =      19 NBONH =  139345 MBONA  =   14135
 NTHETH =   29503 MTHETA =   19449 NPHIH =   59617 MPHIA  =   57590
 NHPARM =       0 NPARM  =       0 NNB   =  316140 NRES   =   43752
 NBONA  =   14135 NTHETA =   19449 NPHIA =   57590 NUMBND =     105
 NUMANG =     244 NPTRA  =     235 NATYP =      47 NPHB   =       0
 IFBOX  =       2 NMXRS  =      34 IFCAP =       0 NEXTRA =       0
 NCOPY  =       0

     BOX TYPE: TRUNCATED OCTAHEDRON

--------------------------------------------------------------------------------
   2.  CONTROL  DATA  FOR  THE  RUN
--------------------------------------------------------------------------------

default_name

General flags:
     imin    =       0, nmropt  =       0

Nature and format of input:
     ntx     =       5, irest   =       1, ntrx    =       1

Nature and format of output:
     ntxo    =       2, ntpr    =    2500, ntrx    =       1, ntwr    =  100000
     iwrap   =       0, ntwx    =    2500, ntwv    =       0, ntwe    =       0
     ioutfm  =       1, ntwprt  =       0, idecomp =       0, rbornstat=      0

Potential function:
     ntf     =       2, ntb     =       2, igb     =       0, nsnb    =      25
     ipol    =       0, gbsa    =       0, iesp    =       0
     dielc   =   1.00000, cut     =   9.00000, intdiel =   1.00000

Frozen or restrained atoms:
     ibelly  =       0, ntr     =       1
     restraint_wt =   5.00000

Molecular dynamics:
     nstlim  =    100000, nscm    =         0, nrespa  =         1
     t       =   0.00000, dt      =   0.00200, vlimit  =  -1.00000

Langevin dynamics temperature regulation:
     ig      =   45470
     temp0   = 300.00000, tempi   =   0.00000, gamma_ln=   2.00000

Pressure regulation:
     ntp     =       1
     pres0   =   1.01325, comp    =  44.60000, taup    =   1.00000

SHAKE:
     ntc     =       2, jfastw  =       0
     tol     =   0.00001

Ewald parameters:
     verbose =       0, ew_type =       0, nbflag  =       1, use_pme =       1
     vdwmeth =       1, eedmeth =       1, netfrc  =       1
     Box X =  130.969   Box Y =  130.969   Box Z =  130.969
     Alpha =  109.471   Beta  =  109.471   Gamma =  109.471
     NFFT1 =  128       NFFT2 =  128       NFFT3 =  128
     Cutoff=    9.000   Tol   =0.100E-04
     Ewald Coefficient =  0.30768
     Interpolation order =    4

    LOADING THE CONSTRAINED ATOMS AS GROUPS

   5.  REFERENCE ATOM COORDINATES

  default_name
     Mask @CA,C,O,N; matches 47927 atoms

--------------------------------------------------------------------------------
   3.  ATOMIC COORDINATES AND VELOCITIES
--------------------------------------------------------------------------------

default_name
 begin time read from input coords =    50.000 ps

 Number of triangulated 3-point waters found:    42143

     Sum of charges from parm topology file =  -0.00000065
     Forcing neutrality...

--------------------------------------------------------------------------------
   4.  RESULTS
 NSTEP =     2500   TIME(PS) =      55.000  TEMP(K) =   300.02  PRESS =    12.9
 Etot   =   -363942.2088  EKtot   =     95400.6484  EPtot      =   -459342.8572
 BOND   =      5446.9881  ANGLE   =     14200.6528  DIHED      =     21759.1008
 1-4 NB =      6206.1919  1-4 EEL =     51605.9733  VDWAALS    =     69224.2201
 EELEC  =   -649639.1963  EHBOND  =         0.0000  RESTRAINT  =     21853.2120
 EAMBER (non-restraint)  =   -481196.0692
 EKCMT  =     37823.8571  VIRIAL  =     37331.4604  VOLUME     =   1769685.1496
                                                    Density    =         0.8979
 ------------------------------------------------------------------------------

      A V E R A G E S   O V E R      40 S T E P S

 NSTEP =   100000   TIME(PS) =     250.000  TEMP(K) =   300.14  PRESS =   -10.7
 Etot   =   -363121.3467  EKtot   =     95437.7139  EPtot      =   -458559.0606
 BOND   =      5432.5818  ANGLE   =     14084.2951  DIHED      =     21713.1667
 1-4 NB =      6210.1556  1-4 EEL =     51619.7505  VDWAALS    =     68568.2618
 EELEC  =   -648487.1228  EHBOND  =         0.0000  RESTRAINT  =     22299.8508
 EAMBER (non-restraint)  =   -480858.9114
 EKCMT  =     37902.3498  VIRIAL  =     38310.2596  VOLUME     =   1770495.9928
                                                    Density    =         0.8975
 ------------------------------------------------------------------------------

      R M S  F L U C T U A T I O N S

 NSTEP =   100000   TIME(PS) =     250.000  TEMP(K) =     0.78  PRESS =    60.7
 Etot   =       471.0815  EKtot   =       249.1318  EPtot      =       409.1281
 BOND   =        60.1424  ANGLE   =       107.3564  DIHED      =        46.6279
 1-4 NB =        31.2611  1-4 EEL =        70.7336  VDWAALS    =       237.5774
 EELEC  =       413.8587  EHBOND  =         0.0000  RESTRAINT  =       207.8988
 EAMBER (non-restraint)  =       201.2293
 EKCMT  =       156.8587  VIRIAL  =      2318.4351  VOLUME     =       381.3410
                                                    Density    =         0.0002
 ------------------------------------------------------------------------------
