-------------------------------------------------------
          Amber 20 PMEMD                              2020
          -------------------------------------------------------

  [-O]verwriting output

File Assignments:

 Here is the input file:

Equilibration Step 2: backbone atoms restrained
 &cntrl
  imin=0, irest=1, ntx=5,
  nstlim=100000, dt=0.002,
  ntwr=0, ntpr=2500, ntwx=2500, ntxo=2, ioutfm=1,
  ntc=2, ntf=2,
  cut=9.0,
  ntt=3, gamma_ln=2.0, temp0=300.0, ig=-1,
  ntb=2, ntp=1, barostat=1, taup=1.0, pres0=1.01325,
  ntr=1, restraint_wt=1.0, restraintmask='@CA,C,O,N',
 /

Note: ig = -1. Setting random seed to    51747 based on wallclock time in
      microseconds.

--------------------------------------------------------------------------------
   1.  RESOURCE   USE:
--------------------------------------------------------------------------------

 getting box info from netcdf restart file
 NATOM  =  153125 NTYPES =      19 NBONH =  139345 MBONA  =   14135
 NTHETH =   29503 MTHETA =   19449 NPHIH =   59617 MPHIA  =   57590
 NHPARM =       0 NPARM  =       0 NNB   =  316140 NRES   =   43752
 NBONA  =   14135 NTHETA =   19449 NPHIA =   57590 NUMBND =     105
 NUMANG =     244 NPTRA  =     235 NATYP =      47 NPHB   =       0
 IFBOX  =       2 NMXRS  =      34 IFCAP =       0 NEXTRA =       0
 NCOPY  =       0

     BOX TYPE: TRUNCATED OCTAHEDRON

--------------------------------------------------------------------------------
   2.  CONTROL  DATA  FOR  THE  RUN
--------------------------------------------------------------------------------

default_name

General flags:
     imin    =       0, nmropt  =       0

Nature and format of input:
     ntx     =       5, irest   =       1, ntrx    =       1

Nature and format of output:
     ntxo    =       2, ntpr    =    2500, ntrx    =       1, ntwr    =  100000
     iwrap   =       0, ntwx    =    2500, ntwv    =       0, ntwe    =       0
     ioutfm  =       1, ntwprt  =       0, idecomp =       0, rbornstat=      0

Potential function:
     ntf     =       2, ntb     =       2, igb     =       0, nsnb    =      25
     ipol    =       0, gbsa    =       0, iesp    =       0
     dielc   =   1.00000, cut     =   9.00000, intdiel =   1.00000

Frozen or restrained atoms:
     ibelly  =       0, ntr     =       1
     restraint_wt =   1.00000

Molecular dynamics:
     nstlim  =    100000, nscm    =         0, nrespa  =         1
     t       =   0.00000, dt      =   0.00200, vlimit  =  -1.00000

Langevin dynamics temperature regulation:
     ig      =   51747
     temp0   = 300.00000, tempi   =   0.00000, gamma_ln=   2.00000

Pressure regulation:
     ntp     =       1
     pres0   =   1.01325, comp    =  44.60000, taup    =   1.00000

SHAKE:
     ntc     =       2, jfastw  =       0
     tol     =   0.00001

Ewald parameters:
     verbose =       0, ew_type =       0, nbflag  =       1, use_pme =       1
     vdwmeth =       1, eedmeth =       1, netfrc  =       1
     Box X =  132.000   Box Y =  132.000   Box Z =  132.000
     Alpha =  109.471   Beta  =  109.471   Gamma =  109.471
     NFFT1 =  128       NFFT2 =  128       NFFT3 =  128
     Cutoff=    9.000   Tol   =0.100E-04
     Ewald Coefficient =  0.30768
     Interpolation order =    4

    LOADING THE CONSTRAINED ATOMS AS GROUPS

   5.  REFERENCE ATOM COORDINATES

  default_name
     Mask @CA,C,O,N; matches 47927 atoms

--------------------------------------------------------------------------------
   3.  ATOMIC COORDINATES AND VELOCITIES
--------------------------------------------------------------------------------

default_name
 begin time read from input coords =   250.000 ps

 Number of triangulated 3-point waters found:    42143

     Sum of charges from parm topology file =  -0.00000065
     Forcing neutrality...

--------------------------------------------------------------------------------
   4.  RESULTS
 NSTEP =     2500   TIME(PS) =     255.000  TEMP(K) =   300.21  PRESS =   -74.2
 Etot   =   -358788.4786  EKtot   =     95461.4453  EPtot      =   -454249.9239
 BOND   =      5349.9665  ANGLE   =     13949.5449  DIHED      =     21804.1638
 1-4 NB =      6223.0977  1-4 EEL =     51749.8357  VDWAALS    =     59271.9333
 EELEC  =   -631548.4235  EHBOND  =         0.0000  RESTRAINT  =     18949.9576
 EAMBER (non-restraint)  =   -473199.8815
 EKCMT  =     37742.5825  VIRIAL  =     40497.8219  VOLUME     =   1719909.2222
                                                    Density    =         0.9239
 ------------------------------------------------------------------------------

      A V E R A G E S   O V E R      40 S T E P S

 NSTEP =   100000   TIME(PS) =     450.000  TEMP(K) =   300.08  PRESS =    -6.8
 Etot   =   -352748.1782  EKtot   =     95419.2268  EPtot      =   -448167.4050
 BOND   =      5435.0322  ANGLE   =     14058.5678  DIHED      =     21643.3922
 1-4 NB =      6218.8667  1-4 EEL =     51689.2836  VDWAALS    =     57651.5583
 EELEC  =   -627620.6498  EHBOND  =         0.0000  RESTRAINT  =     22756.5441
 EAMBER (non-restraint)  =   -470923.9490
 EKCMT  =     37907.7181  VIRIAL  =     38155.2540  VOLUME     =   1700117.6304
                                                    Density    =         0.9346
 ------------------------------------------------------------------------------

      R M S  F L U C T U A T I O N S

 NSTEP =   100000   TIME(PS) =     450.000  TEMP(K) =     0.64  PRESS =    62.5
 Etot   =      1473.4425  EKtot   =       204.6855  EPtot      =      1455.3613
 BOND   =        73.0864  ANGLE   =        84.5153  DIHED      =        54.6894
 1-4 NB =        29.9280  1-4 EEL =        85.8163  VDWAALS    =       474.6834
 EELEC  =       965.5283  EHBOND  =         0.0000  RESTRAINT  =       948.3107
 EAMBER (non-restraint)  =       507.0506
 EKCMT  =       140.0141  VIRIAL  =      2286.2033  VOLUME     =      5015.2068
                                                    Density    =         0.0027
 ------------------------------------------------------------------------------
