-------------------------------------------------------
          Amber 20 PMEMD                              2020
          -------------------------------------------------------

  [-O]verwriting output

File Assignments:

 Here is the input file:

Equilibration Step 3: backbone atoms restrained
 &cntrl
  imin=0, irest=1, ntx=5,
  nstlim=100000, dt=0.002,
  ntwr=0, ntpr=2500, ntwx=2500, ntxo=2, ioutfm=1,
  ntc=2, ntf=2,
  cut=9.0,
  ntt=3, gamma_ln=2.0, temp0=300.0, ig=-1,
  ntb=2, ntp=1, barostat=1, taup=1.0, pres0=1.01325,
  ntr=1, restraint_wt=0.1, restraintmask='@CA,C,O,N',
 /

Note: ig = -1. Setting random seed to    58736 based on wallclock time in
      microseconds.

--------------------------------------------------------------------------------
   1.  RESOURCE   USE:
--------------------------------------------------------------------------------

 getting box info from netcdf restart file
 NATOM  =  153125 NTYPES =      19 NBONH =  139345 MBONA  =   14135
 NTHETH =   29503 MTHETA =   19449 NPHIH =   59617 MPHIA  =   57590
 NHPARM =       0 NPARM  =       0 NNB   =  316140 NRES   =   43752
 NBONA  =   14135 NTHETA =   19449 NPHIA =   57590 NUMBND =     105
 NUMANG =     244 NPTRA  =     235 NATYP =      47 NPHB   =       0
 IFBOX  =       2 NMXRS  =      34 IFCAP =       0 NEXTRA =       0
 NCOPY  =       0

     BOX TYPE: TRUNCATED OCTAHEDRON

--------------------------------------------------------------------------------
   2.  CONTROL  DATA  FOR  THE  RUN
--------------------------------------------------------------------------------

default_name

General flags:
     imin    =       0, nmropt  =       0

Nature and format of input:
     ntx     =       5, irest   =       1, ntrx    =       1

Nature and format of output:
     ntxo    =       2, ntpr    =    2500, ntrx    =       1, ntwr    =  100000
     iwrap   =       0, ntwx    =    2500, ntwv    =       0, ntwe    =       0
     ioutfm  =       1, ntwprt  =       0, idecomp =       0, rbornstat=      0

Potential function:
     ntf     =       2, ntb     =       2, igb     =       0, nsnb    =      25
     ipol    =       0, gbsa    =       0, iesp    =       0
     dielc   =   1.00000, cut     =   9.00000, intdiel =   1.00000

Frozen or restrained atoms:
     ibelly  =       0, ntr     =       1
     restraint_wt =   0.10000

Molecular dynamics:
     nstlim  =    100000, nscm    =         0, nrespa  =         1
     t       =   0.00000, dt      =   0.00200, vlimit  =  -1.00000

Langevin dynamics temperature regulation:
     ig      =   58736
     temp0   = 300.00000, tempi   =   0.00000, gamma_ln=   2.00000

Pressure regulation:
     ntp     =       1
     pres0   =   1.01325, comp    =  44.60000, taup    =   1.00000

SHAKE:
     ntc     =       2, jfastw  =       0
     tol     =   0.00001

Ewald parameters:
     verbose =       0, ew_type =       0, nbflag  =       1, use_pme =       1
     vdwmeth =       1, eedmeth =       1, netfrc  =       1
     Box X =  130.109   Box Y =  130.109   Box Z =  130.109
     Alpha =  109.471   Beta  =  109.471   Gamma =  109.471
     NFFT1 =  128       NFFT2 =  128       NFFT3 =  128
     Cutoff=    9.000   Tol   =0.100E-04
     Ewald Coefficient =  0.30768
     Interpolation order =    4

    LOADING THE CONSTRAINED ATOMS AS GROUPS

   5.  REFERENCE ATOM COORDINATES

  default_name
     Mask @CA,C,O,N; matches 47927 atoms

--------------------------------------------------------------------------------
   3.  ATOMIC COORDINATES AND VELOCITIES
--------------------------------------------------------------------------------

default_name
 begin time read from input coords =   450.000 ps

 Number of triangulated 3-point waters found:    42143

     Sum of charges from parm topology file =  -0.00000065
     Forcing neutrality...

--------------------------------------------------------------------------------
   4.  RESULTS
 NSTEP =     2500   TIME(PS) =     455.000  TEMP(K) =   298.56  PRESS =   -57.5
 Etot   =   -353765.9532  EKtot   =     94937.1172  EPtot      =   -448703.0704
 BOND   =      5432.8076  ANGLE   =     14314.4905  DIHED      =     21632.9245
 1-4 NB =      6251.1335  1-4 EEL =     51741.3382  VDWAALS    =     46319.6087
 EELEC  =   -614176.9258  EHBOND  =         0.0000  RESTRAINT  =     19781.5522
 EAMBER (non-restraint)  =   -468484.6226
 EKCMT  =     37654.7881  VIRIAL  =     39610.7583  VOLUME     =   1575074.1124
                                                    Density    =         1.0088
 ------------------------------------------------------------------------------

      A V E R A G E S   O V E R      40 S T E P S

 NSTEP =   100000   TIME(PS) =     650.000  TEMP(K) =   300.04  PRESS =   -14.5
 Etot   =   -339359.5739  EKtot   =     95407.2025  EPtot      =   -434766.7764
 BOND   =      5423.6862  ANGLE   =     13968.1064  DIHED      =     21417.7794
 1-4 NB =      6242.9791  1-4 EEL =     51777.4176  VDWAALS    =     46391.0309
 EELEC  =   -615335.2023  EHBOND  =         0.0000  RESTRAINT  =     35347.4263
 EAMBER (non-restraint)  =   -470114.2027
 EKCMT  =     37867.2323  VIRIAL  =     38353.8783  VOLUME     =   1547399.7066
                                                    Density    =         1.0269
 ------------------------------------------------------------------------------

      R M S  F L U C T U A T I O N S

 NSTEP =   100000   TIME(PS) =     650.000  TEMP(K) =     0.71  PRESS =    77.2
 Etot   =      2884.6382  EKtot   =       227.0016  EPtot      =      2776.2218
 BOND   =        59.3290  ANGLE   =       117.2728  DIHED      =        81.2118
 1-4 NB =        35.1978  1-4 EEL =        79.9837  VDWAALS    =       239.1899
 EELEC  =       486.4334  EHBOND  =         0.0000  RESTRAINT  =      3034.7666
 EAMBER (non-restraint)  =      -258.5447
 EKCMT  =       170.4769  VIRIAL  =      2567.6072  VOLUME     =      4865.3517
                                                    Density    =         0.0032
 ------------------------------------------------------------------------------
