-------------------------------------------------------
          Amber 20 PMEMD                              2020
          -------------------------------------------------------

  [-O]verwriting output

File Assignments:

 Here is the input file:

Equilibration Step 1: backbone atoms restrained
 &cntrl
  imin=0, irest=1, ntx=5,
  nstlim=100000, dt=0.002,
  ntwr=0, ntpr=2500, ntwx=2500, ntxo=2, ioutfm=1,
  ntc=2, ntf=2,
  cut=9.0,
  ntt=3, gamma_ln=2.0, temp0=300.0, ig=-1,
  ntb=2, ntp=1, barostat=1, taup=1.0, pres0=1.01325,
  ntr=1, restraint_wt=5.0, restraintmask='@CA,C,O,N',
 /

Note: ig = -1. Setting random seed to   546147 based on wallclock time in
      microseconds.

--------------------------------------------------------------------------------
   1.  RESOURCE   USE:
--------------------------------------------------------------------------------

 getting box info from netcdf restart file
 NATOM  =  150722 NTYPES =      20 NBONH =  136978 MBONA  =   14158
 NTHETH =   28871 MTHETA =   19614 NPHIH =   58380 MPHIA  =   56910
 NHPARM =       0 NPARM  =       0 NNB   =  311537 NRES   =   43023
 NBONA  =   14158 NTHETA =   19614 NPHIA =   56910 NUMBND =     129
 NUMANG =     298 NPTRA  =     261 NATYP =      54 NPHB   =       0
 IFBOX  =       2 NMXRS  =      35 IFCAP =       0 NEXTRA =       0
 NCOPY  =       0

     BOX TYPE: TRUNCATED OCTAHEDRON

--------------------------------------------------------------------------------
   2.  CONTROL  DATA  FOR  THE  RUN
--------------------------------------------------------------------------------

default_name

General flags:
     imin    =       0, nmropt  =       0

Nature and format of input:
     ntx     =       5, irest   =       1, ntrx    =       1

Nature and format of output:
     ntxo    =       2, ntpr    =    2500, ntrx    =       1, ntwr    =  100000
     iwrap   =       0, ntwx    =    2500, ntwv    =       0, ntwe    =       0
     ioutfm  =       1, ntwprt  =       0, idecomp =       0, rbornstat=      0

Potential function:
     ntf     =       2, ntb     =       2, igb     =       0, nsnb    =      25
     ipol    =       0, gbsa    =       0, iesp    =       0
     dielc   =   1.00000, cut     =   9.00000, intdiel =   1.00000

Frozen or restrained atoms:
     ibelly  =       0, ntr     =       1
     restraint_wt =   5.00000

Molecular dynamics:
     nstlim  =    100000, nscm    =         0, nrespa  =         1
     t       =   0.00000, dt      =   0.00200, vlimit  =  -1.00000

Langevin dynamics temperature regulation:
     ig      =  546147
     temp0   = 300.00000, tempi   =   0.00000, gamma_ln=   2.00000

Pressure regulation:
     ntp     =       1
     pres0   =   1.01325, comp    =  44.60000, taup    =   1.00000

SHAKE:
     ntc     =       2, jfastw  =       0
     tol     =   0.00001

Ewald parameters:
     verbose =       0, ew_type =       0, nbflag  =       1, use_pme =       1
     vdwmeth =       1, eedmeth =       1, netfrc  =       1
     Box X =  130.228   Box Y =  130.228   Box Z =  130.228
     Alpha =  109.471   Beta  =  109.471   Gamma =  109.471
     NFFT1 =  128       NFFT2 =  128       NFFT3 =  128
     Cutoff=    9.000   Tol   =0.100E-04
     Ewald Coefficient =  0.30768
     Interpolation order =    4

    LOADING THE CONSTRAINED ATOMS AS GROUPS

   5.  REFERENCE ATOM COORDINATES

  default_name
     Mask @CA,C,O,N; matches 46897 atoms

--------------------------------------------------------------------------------
   3.  ATOMIC COORDINATES AND VELOCITIES
--------------------------------------------------------------------------------

default_name
 begin time read from input coords =    50.000 ps

 Number of triangulated 3-point waters found:    41453

     Sum of charges from parm topology file =  -0.00000039
     Forcing neutrality...

--------------------------------------------------------------------------------
   4.  RESULTS
 NSTEP =     2500   TIME(PS) =      55.000  TEMP(K) =   300.34  PRESS =    62.0
 Etot   =   -365913.7449  EKtot   =     94056.1719  EPtot      =   -459969.9167
 BOND   =      5360.4754  ANGLE   =     13928.5584  DIHED      =     21420.3301
 1-4 NB =      6214.5759  1-4 EEL =     48097.1128  VDWAALS    =     67561.5799
 EELEC  =   -643916.4774  EHBOND  =         0.0000  RESTRAINT  =     21363.9281
 EAMBER (non-restraint)  =   -481333.8448
 EKCMT  =     37178.4095  VIRIAL  =     34852.8836  VOLUME     =   1738602.6379
                                                    Density    =         0.9021
 ------------------------------------------------------------------------------

      A V E R A G E S   O V E R      40 S T E P S

 NSTEP =   100000   TIME(PS) =     250.000  TEMP(K) =   300.00  PRESS =    -4.3
 Etot   =   -365113.3100  EKtot   =     93949.8398  EPtot      =   -459063.1498
 BOND   =      5387.7037  ANGLE   =     13852.0451  DIHED      =     21355.0735
 1-4 NB =      6185.8338  1-4 EEL =     48015.8641  VDWAALS    =     67276.3608
 EELEC  =   -643082.8941  EHBOND  =         0.0000  RESTRAINT  =     21946.8632
 EAMBER (non-restraint)  =   -481010.0130
 EKCMT  =     37280.6253  VIRIAL  =     37441.3913  VOLUME     =   1739959.0787
                                                    Density    =         0.9014
 ------------------------------------------------------------------------------

      R M S  F L U C T U A T I O N S

 NSTEP =   100000   TIME(PS) =     250.000  TEMP(K) =     0.86  PRESS =    71.0
 Etot   =       518.9561  EKtot   =       268.1490  EPtot      =       382.0666
 BOND   =        56.0810  ANGLE   =        82.1658  DIHED      =        50.8867
 1-4 NB =        28.0557  1-4 EEL =        71.9774  VDWAALS    =       321.8928
 EELEC  =       524.4719  EHBOND  =         0.0000  RESTRAINT  =       186.9802
 EAMBER (non-restraint)  =       195.0864
 EKCMT  =       137.3576  VIRIAL  =      2710.8560  VOLUME     =       518.0238
                                                    Density    =         0.0003
 ------------------------------------------------------------------------------
