-------------------------------------------------------
          Amber 20 PMEMD                              2020
          -------------------------------------------------------

  [-O]verwriting output

File Assignments:

 Here is the input file:

Equilibration Step 2: backbone atoms restrained
 &cntrl
  imin=0, irest=1, ntx=5,
  nstlim=100000, dt=0.002,
  ntwr=0, ntpr=2500, ntwx=2500, ntxo=2, ioutfm=1,
  ntc=2, ntf=2,
  cut=9.0,
  ntt=3, gamma_ln=2.0, temp0=300.0, ig=-1,
  ntb=2, ntp=1, barostat=1, taup=1.0, pres0=1.01325,
  ntr=1, restraint_wt=1.0, restraintmask='@CA,C,O,N',
 /

Note: ig = -1. Setting random seed to   845399 based on wallclock time in
      microseconds.

--------------------------------------------------------------------------------
   1.  RESOURCE   USE:
--------------------------------------------------------------------------------

 getting box info from netcdf restart file
 NATOM  =  150722 NTYPES =      20 NBONH =  136978 MBONA  =   14158
 NTHETH =   28871 MTHETA =   19614 NPHIH =   58380 MPHIA  =   56910
 NHPARM =       0 NPARM  =       0 NNB   =  311537 NRES   =   43023
 NBONA  =   14158 NTHETA =   19614 NPHIA =   56910 NUMBND =     129
 NUMANG =     298 NPTRA  =     261 NATYP =      54 NPHB   =       0
 IFBOX  =       2 NMXRS  =      35 IFCAP =       0 NEXTRA =       0
 NCOPY  =       0

     BOX TYPE: TRUNCATED OCTAHEDRON

--------------------------------------------------------------------------------
   2.  CONTROL  DATA  FOR  THE  RUN
--------------------------------------------------------------------------------

default_name

General flags:
     imin    =       0, nmropt  =       0

Nature and format of input:
     ntx     =       5, irest   =       1, ntrx    =       1

Nature and format of output:
     ntxo    =       2, ntpr    =    2500, ntrx    =       1, ntwr    =  100000
     iwrap   =       0, ntwx    =    2500, ntwv    =       0, ntwe    =       0
     ioutfm  =       1, ntwprt  =       0, idecomp =       0, rbornstat=      0

Potential function:
     ntf     =       2, ntb     =       2, igb     =       0, nsnb    =      25
     ipol    =       0, gbsa    =       0, iesp    =       0
     dielc   =   1.00000, cut     =   9.00000, intdiel =   1.00000

Frozen or restrained atoms:
     ibelly  =       0, ntr     =       1
     restraint_wt =   1.00000

Molecular dynamics:
     nstlim  =    100000, nscm    =         0, nrespa  =         1
     t       =   0.00000, dt      =   0.00200, vlimit  =  -1.00000

Langevin dynamics temperature regulation:
     ig      =  845399
     temp0   = 300.00000, tempi   =   0.00000, gamma_ln=   2.00000

Pressure regulation:
     ntp     =       1
     pres0   =   1.01325, comp    =  44.60000, taup    =   1.00000

SHAKE:
     ntc     =       2, jfastw  =       0
     tol     =   0.00001

Ewald parameters:
     verbose =       0, ew_type =       0, nbflag  =       1, use_pme =       1
     vdwmeth =       1, eedmeth =       1, netfrc  =       1
     Box X =  131.261   Box Y =  131.261   Box Z =  131.261
     Alpha =  109.471   Beta  =  109.471   Gamma =  109.471
     NFFT1 =  128       NFFT2 =  128       NFFT3 =  128
     Cutoff=    9.000   Tol   =0.100E-04
     Ewald Coefficient =  0.30768
     Interpolation order =    4

    LOADING THE CONSTRAINED ATOMS AS GROUPS

   5.  REFERENCE ATOM COORDINATES

  default_name
     Mask @CA,C,O,N; matches 46897 atoms

--------------------------------------------------------------------------------
   3.  ATOMIC COORDINATES AND VELOCITIES
--------------------------------------------------------------------------------

default_name
 begin time read from input coords =   250.000 ps

 Number of triangulated 3-point waters found:    41453

     Sum of charges from parm topology file =  -0.00000039
     Forcing neutrality...

--------------------------------------------------------------------------------
   4.  RESULTS
 NSTEP =     2500   TIME(PS) =     255.000  TEMP(K) =   297.21  PRESS =     4.0
 Etot   =   -361013.4049  EKtot   =     93077.6406  EPtot      =   -454091.0456
 BOND   =      5323.4423  ANGLE   =     13726.1531  DIHED      =     21333.5161
 1-4 NB =      6263.9279  1-4 EEL =     48085.4395  VDWAALS    =     57063.2790
 EELEC  =   -624375.9003  EHBOND  =         0.0000  RESTRAINT  =     18489.0968
 EAMBER (non-restraint)  =   -472580.1424
 EKCMT  =     36934.7790  VIRIAL  =     36787.7735  VOLUME     =   1696548.3125
                                                    Density    =         0.9245
 ------------------------------------------------------------------------------

      A V E R A G E S   O V E R      40 S T E P S

 NSTEP =   100000   TIME(PS) =     450.000  TEMP(K) =   299.85  PRESS =   -20.4
 Etot   =   -354580.1150  EKtot   =     93904.9529  EPtot      =   -448485.0680
 BOND   =      5385.0385  ANGLE   =     13831.2916  DIHED      =     21300.7824
 1-4 NB =      6193.9246  1-4 EEL =     48141.0439  VDWAALS    =     55756.8980
 EELEC  =   -621372.3877  EHBOND  =         0.0000  RESTRAINT  =     22278.3409
 EAMBER (non-restraint)  =   -470763.4088
 EKCMT  =     37265.4096  VIRIAL  =     38004.1158  VOLUME     =   1677774.6272
                                                    Density    =         0.9349
 ------------------------------------------------------------------------------

      R M S  F L U C T U A T I O N S

 NSTEP =   100000   TIME(PS) =     450.000  TEMP(K) =     0.93  PRESS =    70.0
 Etot   =      1421.6369  EKtot   =       291.0355  EPtot      =      1283.3526
 BOND   =        66.4559  ANGLE   =        84.2662  DIHED      =        57.7619
 1-4 NB =        32.1964  1-4 EEL =        84.4423  VDWAALS    =       397.1309
 EELEC  =       763.8807  EHBOND  =         0.0000  RESTRAINT  =       903.6259
 EAMBER (non-restraint)  =       379.7267
 EKCMT  =       175.1760  VIRIAL  =      2535.7192  VOLUME     =      4595.0595
                                                    Density    =         0.0025
 ------------------------------------------------------------------------------
