-------------------------------------------------------
          Amber 20 PMEMD                              2020
          -------------------------------------------------------

  [-O]verwriting output

File Assignments:

 Here is the input file:

Equilibration Step 3: backbone atoms restrained
 &cntrl
  imin=0, irest=1, ntx=5,
  nstlim=100000, dt=0.002,
  ntwr=0, ntpr=2500, ntwx=2500, ntxo=2, ioutfm=1,
  ntc=2, ntf=2,
  cut=9.0,
  ntt=3, gamma_ln=2.0, temp0=300.0, ig=-1,
  ntb=2, ntp=1, barostat=1, taup=1.0, pres0=1.01325,
  ntr=1, restraint_wt=0.1, restraintmask='@CA,C,O,N',
 /

Note: ig = -1. Setting random seed to   903691 based on wallclock time in
      microseconds.

--------------------------------------------------------------------------------
   1.  RESOURCE   USE:
--------------------------------------------------------------------------------

 getting box info from netcdf restart file
 NATOM  =  150722 NTYPES =      20 NBONH =  136978 MBONA  =   14158
 NTHETH =   28871 MTHETA =   19614 NPHIH =   58380 MPHIA  =   56910
 NHPARM =       0 NPARM  =       0 NNB   =  311537 NRES   =   43023
 NBONA  =   14158 NTHETA =   19614 NPHIA =   56910 NUMBND =     129
 NUMANG =     298 NPTRA  =     261 NATYP =      54 NPHB   =       0
 IFBOX  =       2 NMXRS  =      35 IFCAP =       0 NEXTRA =       0
 NCOPY  =       0

     BOX TYPE: TRUNCATED OCTAHEDRON

--------------------------------------------------------------------------------
   2.  CONTROL  DATA  FOR  THE  RUN
--------------------------------------------------------------------------------

default_name

General flags:
     imin    =       0, nmropt  =       0

Nature and format of input:
     ntx     =       5, irest   =       1, ntrx    =       1

Nature and format of output:
     ntxo    =       2, ntpr    =    2500, ntrx    =       1, ntwr    =  100000
     iwrap   =       0, ntwx    =    2500, ntwv    =       0, ntwe    =       0
     ioutfm  =       1, ntwprt  =       0, idecomp =       0, rbornstat=      0

Potential function:
     ntf     =       2, ntb     =       2, igb     =       0, nsnb    =      25
     ipol    =       0, gbsa    =       0, iesp    =       0
     dielc   =   1.00000, cut     =   9.00000, intdiel =   1.00000

Frozen or restrained atoms:
     ibelly  =       0, ntr     =       1
     restraint_wt =   0.10000

Molecular dynamics:
     nstlim  =    100000, nscm    =         0, nrespa  =         1
     t       =   0.00000, dt      =   0.00200, vlimit  =  -1.00000

Langevin dynamics temperature regulation:
     ig      =  903691
     temp0   = 300.00000, tempi   =   0.00000, gamma_ln=   2.00000

Pressure regulation:
     ntp     =       1
     pres0   =   1.01325, comp    =  44.60000, taup    =   1.00000

SHAKE:
     ntc     =       2, jfastw  =       0
     tol     =   0.00001

Ewald parameters:
     verbose =       0, ew_type =       0, nbflag  =       1, use_pme =       1
     vdwmeth =       1, eedmeth =       1, netfrc  =       1
     Box X =  129.635   Box Y =  129.635   Box Z =  129.635
     Alpha =  109.471   Beta  =  109.471   Gamma =  109.471
     NFFT1 =  128       NFFT2 =  128       NFFT3 =  128
     Cutoff=    9.000   Tol   =0.100E-04
     Ewald Coefficient =  0.30768
     Interpolation order =    4

    LOADING THE CONSTRAINED ATOMS AS GROUPS

   5.  REFERENCE ATOM COORDINATES

  default_name
     Mask @CA,C,O,N; matches 46897 atoms

--------------------------------------------------------------------------------
   3.  ATOMIC COORDINATES AND VELOCITIES
--------------------------------------------------------------------------------

default_name
 begin time read from input coords =   450.000 ps

 Number of triangulated 3-point waters found:    41453

     Sum of charges from parm topology file =  -0.00000039
     Forcing neutrality...

--------------------------------------------------------------------------------
   4.  RESULTS
 NSTEP =     2500   TIME(PS) =     455.000  TEMP(K) =   298.21  PRESS =  -261.8
 Etot   =   -356557.1145  EKtot   =     93390.3984  EPtot      =   -449947.5129
 BOND   =      5298.6196  ANGLE   =     13658.9592  DIHED      =     21257.6909
 1-4 NB =      6215.3393  1-4 EEL =     48225.8023  VDWAALS    =     45022.0209
 EELEC  =   -609079.4966  EHBOND  =         0.0000  RESTRAINT  =     19453.5515
 EAMBER (non-restraint)  =   -469401.0644
 EKCMT  =     36727.7635  VIRIAL  =     45506.2139  VOLUME     =   1553284.3230
                                                    Density    =         1.0098
 ------------------------------------------------------------------------------

      A V E R A G E S   O V E R      40 S T E P S

 NSTEP =   100000   TIME(PS) =     650.000  TEMP(K) =   299.84  PRESS =   -41.4
 Etot   =   -341837.6595  EKtot   =     93902.1172  EPtot      =   -435739.7767
 BOND   =      5353.0431  ANGLE   =     13717.4146  DIHED      =     21152.3159
 1-4 NB =      6204.7250  1-4 EEL =     48190.1239  VDWAALS    =     44986.1735
 EELEC  =   -610091.1016  EHBOND  =         0.0000  RESTRAINT  =     34747.5290
 EAMBER (non-restraint)  =   -470487.3057
 EKCMT  =     37220.8950  VIRIAL  =     38584.0699  VOLUME     =   1522631.4281
                                                    Density    =         1.0301
 ------------------------------------------------------------------------------

      R M S  F L U C T U A T I O N S

 NSTEP =   100000   TIME(PS) =     650.000  TEMP(K) =     0.81  PRESS =   103.2
 Etot   =      2834.3508  EKtot   =       254.0705  EPtot      =      2782.0073
 BOND   =        62.7941  ANGLE   =        96.9186  DIHED      =        59.0571
 1-4 NB =        35.2317  1-4 EEL =        82.4772  VDWAALS    =       273.2187
 EELEC  =       494.9405  EHBOND  =         0.0000  RESTRAINT  =      3009.9756
 EAMBER (non-restraint)  =      -227.9684
 EKCMT  =       162.9340  VIRIAL  =      3384.6821  VOLUME     =      5688.2704
                                                    Density    =         0.0038
 ------------------------------------------------------------------------------
