-------------------------------------------------------
          Amber 20 PMEMD                              2020
          -------------------------------------------------------

  [-O]verwriting output

File Assignments:

 Here is the input file:

Equilibration Step 1: backbone atoms restrained
 &cntrl
  imin=0, irest=1, ntx=5,
  nstlim=100000, dt=0.002,
  ntwr=0, ntpr=2500, ntwx=2500, ntxo=2, ioutfm=1,
  ntc=2, ntf=2,
  cut=9.0,
  ntt=3, gamma_ln=2.0, temp0=300.0, ig=-1,
  ntb=2, ntp=1, barostat=1, taup=1.0, pres0=1.01325,
  ntr=1, restraint_wt=5.0, restraintmask='@CA,C,O,N',
 /

Note: ig = -1. Setting random seed to   558995 based on wallclock time in
      microseconds.

--------------------------------------------------------------------------------
   1.  RESOURCE   USE:
--------------------------------------------------------------------------------

 getting box info from netcdf restart file
 NATOM  =  158393 NTYPES =      19 NBONH =  144259 MBONA  =   14482
 NTHETH =   30239 MTHETA =   19923 NPHIH =   61062 MPHIA  =   59147
 NHPARM =       0 NPARM  =       0 NNB   =  325939 NRES   =   45341
 NBONA  =   14482 NTHETA =   19923 NPHIA =   59147 NUMBND =     105
 NUMANG =     244 NPTRA  =     235 NATYP =      47 NPHB   =       0
 IFBOX  =       2 NMXRS  =      34 IFCAP =       0 NEXTRA =       0
 NCOPY  =       0

     BOX TYPE: TRUNCATED OCTAHEDRON

--------------------------------------------------------------------------------
   2.  CONTROL  DATA  FOR  THE  RUN
--------------------------------------------------------------------------------

default_name

General flags:
     imin    =       0, nmropt  =       0

Nature and format of input:
     ntx     =       5, irest   =       1, ntrx    =       1

Nature and format of output:
     ntxo    =       2, ntpr    =    2500, ntrx    =       1, ntwr    =  100000
     iwrap   =       0, ntwx    =    2500, ntwv    =       0, ntwe    =       0
     ioutfm  =       1, ntwprt  =       0, idecomp =       0, rbornstat=      0

Potential function:
     ntf     =       2, ntb     =       2, igb     =       0, nsnb    =      25
     ipol    =       0, gbsa    =       0, iesp    =       0
     dielc   =   1.00000, cut     =   9.00000, intdiel =   1.00000

Frozen or restrained atoms:
     ibelly  =       0, ntr     =       1
     restraint_wt =   5.00000

Molecular dynamics:
     nstlim  =    100000, nscm    =         0, nrespa  =         1
     t       =   0.00000, dt      =   0.00200, vlimit  =  -1.00000

Langevin dynamics temperature regulation:
     ig      =  558995
     temp0   = 300.00000, tempi   =   0.00000, gamma_ln=   2.00000

Pressure regulation:
     ntp     =       1
     pres0   =   1.01325, comp    =  44.60000, taup    =   1.00000

SHAKE:
     ntc     =       2, jfastw  =       0
     tol     =   0.00001

Ewald parameters:
     verbose =       0, ew_type =       0, nbflag  =       1, use_pme =       1
     vdwmeth =       1, eedmeth =       1, netfrc  =       1
     Box X =  132.584   Box Y =  132.584   Box Z =  132.584
     Alpha =  109.471   Beta  =  109.471   Gamma =  109.471
     NFFT1 =  128       NFFT2 =  128       NFFT3 =  128
     Cutoff=    9.000   Tol   =0.100E-04
     Ewald Coefficient =  0.30768
     Interpolation order =    4

    LOADING THE CONSTRAINED ATOMS AS GROUPS

   5.  REFERENCE ATOM COORDINATES

  default_name
     Mask @CA,C,O,N; matches 49639 atoms

--------------------------------------------------------------------------------
   3.  ATOMIC COORDINATES AND VELOCITIES
--------------------------------------------------------------------------------

default_name
 begin time read from input coords =    50.000 ps

 Number of triangulated 3-point waters found:    43675

     Sum of charges from parm topology file =  -0.00000069
     Forcing neutrality...

--------------------------------------------------------------------------------
   4.  RESULTS
 NSTEP =     2500   TIME(PS) =      55.000  TEMP(K) =   301.15  PRESS =    47.9
 Etot   =   -376866.6160  EKtot   =     99019.2734  EPtot      =   -475885.8895
 BOND   =      5660.0207  ANGLE   =     14253.6839  DIHED      =     22090.1061
 1-4 NB =      6393.4545  1-4 EEL =     54639.1842  VDWAALS    =     70931.4682
 EELEC  =   -672395.2529  EHBOND  =         0.0000  RESTRAINT  =     22541.4458
 EAMBER (non-restraint)  =   -498427.3353
 EKCMT  =     39532.8132  VIRIAL  =     37629.2144  VOLUME     =   1841763.8592
                                                    Density    =         0.8923
 ------------------------------------------------------------------------------

      A V E R A G E S   O V E R      40 S T E P S

 NSTEP =   100000   TIME(PS) =     250.000  TEMP(K) =   299.93  PRESS =     9.5
 Etot   =   -376425.9641  EKtot   =     98618.2752  EPtot      =   -475044.2393
 BOND   =      5536.2161  ANGLE   =     14330.8528  DIHED      =     22061.5365
 1-4 NB =      6384.2113  1-4 EEL =     54723.0779  VDWAALS    =     70720.2247
 EELEC  =   -671899.5936  EHBOND  =         0.0000  RESTRAINT  =     23099.2350
 EAMBER (non-restraint)  =   -498143.4742
 EKCMT  =     39271.1937  VIRIAL  =     38891.4722  VOLUME     =   1841625.4478
                                                    Density    =         0.8924
 ------------------------------------------------------------------------------

      R M S  F L U C T U A T I O N S

 NSTEP =   100000   TIME(PS) =     250.000  TEMP(K) =     0.74  PRESS =    59.4
 Etot   =       356.3005  EKtot   =       243.8051  EPtot      =       326.0923
 BOND   =        64.5779  ANGLE   =        88.8376  DIHED      =        48.3546
 1-4 NB =        27.0933  1-4 EEL =        75.6341  VDWAALS    =       243.5861
 EELEC  =       322.3419  EHBOND  =         0.0000  RESTRAINT  =       189.1772
 EAMBER (non-restraint)  =       136.9151
 EKCMT  =       167.7613  VIRIAL  =      2364.4306  VOLUME     =       363.2246
                                                    Density    =         0.0002
 ------------------------------------------------------------------------------
