-------------------------------------------------------
          Amber 20 PMEMD                              2020
          -------------------------------------------------------

  [-O]verwriting output

File Assignments:

 Here is the input file:

Equilibration Step 2: backbone atoms restrained
 &cntrl
  imin=0, irest=1, ntx=5,
  nstlim=100000, dt=0.002,
  ntwr=0, ntpr=2500, ntwx=2500, ntxo=2, ioutfm=1,
  ntc=2, ntf=2,
  cut=9.0,
  ntt=3, gamma_ln=2.0, temp0=300.0, ig=-1,
  ntb=2, ntp=1, barostat=1, taup=1.0, pres0=1.01325,
  ntr=1, restraint_wt=1.0, restraintmask='@CA,C,O,N',
 /

Note: ig = -1. Setting random seed to   986371 based on wallclock time in
      microseconds.

--------------------------------------------------------------------------------
   1.  RESOURCE   USE:
--------------------------------------------------------------------------------

 getting box info from netcdf restart file
 NATOM  =  158393 NTYPES =      19 NBONH =  144259 MBONA  =   14482
 NTHETH =   30239 MTHETA =   19923 NPHIH =   61062 MPHIA  =   59147
 NHPARM =       0 NPARM  =       0 NNB   =  325939 NRES   =   45341
 NBONA  =   14482 NTHETA =   19923 NPHIA =   59147 NUMBND =     105
 NUMANG =     244 NPTRA  =     235 NATYP =      47 NPHB   =       0
 IFBOX  =       2 NMXRS  =      34 IFCAP =       0 NEXTRA =       0
 NCOPY  =       0

     BOX TYPE: TRUNCATED OCTAHEDRON

--------------------------------------------------------------------------------
   2.  CONTROL  DATA  FOR  THE  RUN
--------------------------------------------------------------------------------

default_name

General flags:
     imin    =       0, nmropt  =       0

Nature and format of input:
     ntx     =       5, irest   =       1, ntrx    =       1

Nature and format of output:
     ntxo    =       2, ntpr    =    2500, ntrx    =       1, ntwr    =  100000
     iwrap   =       0, ntwx    =    2500, ntwv    =       0, ntwe    =       0
     ioutfm  =       1, ntwprt  =       0, idecomp =       0, rbornstat=      0

Potential function:
     ntf     =       2, ntb     =       2, igb     =       0, nsnb    =      25
     ipol    =       0, gbsa    =       0, iesp    =       0
     dielc   =   1.00000, cut     =   9.00000, intdiel =   1.00000

Frozen or restrained atoms:
     ibelly  =       0, ntr     =       1
     restraint_wt =   1.00000

Molecular dynamics:
     nstlim  =    100000, nscm    =         0, nrespa  =         1
     t       =   0.00000, dt      =   0.00200, vlimit  =  -1.00000

Langevin dynamics temperature regulation:
     ig      =  986371
     temp0   = 300.00000, tempi   =   0.00000, gamma_ln=   2.00000

Pressure regulation:
     ntp     =       1
     pres0   =   1.01325, comp    =  44.60000, taup    =   1.00000

SHAKE:
     ntc     =       2, jfastw  =       0
     tol     =   0.00001

Ewald parameters:
     verbose =       0, ew_type =       0, nbflag  =       1, use_pme =       1
     vdwmeth =       1, eedmeth =       1, netfrc  =       1
     Box X =  133.744   Box Y =  133.744   Box Z =  133.744
     Alpha =  109.471   Beta  =  109.471   Gamma =  109.471
     NFFT1 =  128       NFFT2 =  128       NFFT3 =  128
     Cutoff=    9.000   Tol   =0.100E-04
     Ewald Coefficient =  0.30768
     Interpolation order =    4

    LOADING THE CONSTRAINED ATOMS AS GROUPS

   5.  REFERENCE ATOM COORDINATES

  default_name
     Mask @CA,C,O,N; matches 49639 atoms

--------------------------------------------------------------------------------
   3.  ATOMIC COORDINATES AND VELOCITIES
--------------------------------------------------------------------------------

default_name
 begin time read from input coords =   250.000 ps

 Number of triangulated 3-point waters found:    43675

     Sum of charges from parm topology file =  -0.00000069
     Forcing neutrality...

--------------------------------------------------------------------------------
   4.  RESULTS
 NSTEP =     2500   TIME(PS) =     255.000  TEMP(K) =   300.29  PRESS =   -43.1
 Etot   =   -370645.5845  EKtot   =     98734.6875  EPtot      =   -469380.2720
 BOND   =      5420.4739  ANGLE   =     14322.6054  DIHED      =     22062.3787
 1-4 NB =      6452.4621  1-4 EEL =     54884.9211  VDWAALS    =     60951.2972
 EELEC  =   -652883.3319  EHBOND  =         0.0000  RESTRAINT  =     19408.9215
 EAMBER (non-restraint)  =   -488789.1934
 EKCMT  =     39286.7453  VIRIAL  =     40955.1558  VOLUME     =   1794615.1491
                                                    Density    =         0.9158
 ------------------------------------------------------------------------------

      A V E R A G E S   O V E R      40 S T E P S

 NSTEP =   100000   TIME(PS) =     450.000  TEMP(K) =   299.85  PRESS =    11.1
 Etot   =   -365081.0433  EKtot   =     98589.2857  EPtot      =   -463670.3291
 BOND   =      5526.8500  ANGLE   =     14367.2748  DIHED      =     22039.9205
 1-4 NB =      6417.0525  1-4 EEL =     54832.3862  VDWAALS    =     59484.6357
 EELEC  =   -649690.9261  EHBOND  =         0.0000  RESTRAINT  =     23352.4775
 EAMBER (non-restraint)  =   -487022.8066
 EKCMT  =     39237.7225  VIRIAL  =     38813.1228  VOLUME     =   1773225.5093
                                                    Density    =         0.9268
 ------------------------------------------------------------------------------

      R M S  F L U C T U A T I O N S

 NSTEP =   100000   TIME(PS) =     450.000  TEMP(K) =     0.64  PRESS =    76.2
 Etot   =      1346.7409  EKtot   =       211.1967  EPtot      =      1372.6680
 BOND   =        53.7975  ANGLE   =        89.4582  DIHED      =        59.0262
 1-4 NB =        30.8459  1-4 EEL =        89.1241  VDWAALS    =       431.4117
 EELEC  =       815.9419  EHBOND  =         0.0000  RESTRAINT  =       985.5117
 EAMBER (non-restraint)  =       387.1563
 EKCMT  =       124.2204  VIRIAL  =      2916.0246  VOLUME     =      5895.8716
                                                    Density    =         0.0031
 ------------------------------------------------------------------------------
