-------------------------------------------------------
          Amber 20 PMEMD                              2020
          -------------------------------------------------------

  [-O]verwriting output

File Assignments:

 Here is the input file:

Equilibration Step 3: backbone atoms restrained
 &cntrl
  imin=0, irest=1, ntx=5,
  nstlim=100000, dt=0.002,
  ntwr=0, ntpr=2500, ntwx=2500, ntxo=2, ioutfm=1,
  ntc=2, ntf=2,
  cut=9.0,
  ntt=3, gamma_ln=2.0, temp0=300.0, ig=-1,
  ntb=2, ntp=1, barostat=1, taup=1.0, pres0=1.01325,
  ntr=1, restraint_wt=0.1, restraintmask='@CA,C,O,N',
 /

Note: ig = -1. Setting random seed to   989566 based on wallclock time in
      microseconds.

--------------------------------------------------------------------------------
   1.  RESOURCE   USE:
--------------------------------------------------------------------------------

 getting box info from netcdf restart file
 NATOM  =  158393 NTYPES =      19 NBONH =  144259 MBONA  =   14482
 NTHETH =   30239 MTHETA =   19923 NPHIH =   61062 MPHIA  =   59147
 NHPARM =       0 NPARM  =       0 NNB   =  325939 NRES   =   45341
 NBONA  =   14482 NTHETA =   19923 NPHIA =   59147 NUMBND =     105
 NUMANG =     244 NPTRA  =     235 NATYP =      47 NPHB   =       0
 IFBOX  =       2 NMXRS  =      34 IFCAP =       0 NEXTRA =       0
 NCOPY  =       0

     BOX TYPE: TRUNCATED OCTAHEDRON

--------------------------------------------------------------------------------
   2.  CONTROL  DATA  FOR  THE  RUN
--------------------------------------------------------------------------------

default_name

General flags:
     imin    =       0, nmropt  =       0

Nature and format of input:
     ntx     =       5, irest   =       1, ntrx    =       1

Nature and format of output:
     ntxo    =       2, ntpr    =    2500, ntrx    =       1, ntwr    =  100000
     iwrap   =       0, ntwx    =    2500, ntwv    =       0, ntwe    =       0
     ioutfm  =       1, ntwprt  =       0, idecomp =       0, rbornstat=      0

Potential function:
     ntf     =       2, ntb     =       2, igb     =       0, nsnb    =      25
     ipol    =       0, gbsa    =       0, iesp    =       0
     dielc   =   1.00000, cut     =   9.00000, intdiel =   1.00000

Frozen or restrained atoms:
     ibelly  =       0, ntr     =       1
     restraint_wt =   0.10000

Molecular dynamics:
     nstlim  =    100000, nscm    =         0, nrespa  =         1
     t       =   0.00000, dt      =   0.00200, vlimit  =  -1.00000

Langevin dynamics temperature regulation:
     ig      =  989566
     temp0   = 300.00000, tempi   =   0.00000, gamma_ln=   2.00000

Pressure regulation:
     ntp     =       1
     pres0   =   1.01325, comp    =  44.60000, taup    =   1.00000

SHAKE:
     ntc     =       2, jfastw  =       0
     tol     =   0.00001

Ewald parameters:
     verbose =       0, ew_type =       0, nbflag  =       1, use_pme =       1
     vdwmeth =       1, eedmeth =       1, netfrc  =       1
     Box X =  131.895   Box Y =  131.895   Box Z =  131.895
     Alpha =  109.471   Beta  =  109.471   Gamma =  109.471
     NFFT1 =  128       NFFT2 =  128       NFFT3 =  128
     Cutoff=    9.000   Tol   =0.100E-04
     Ewald Coefficient =  0.30768
     Interpolation order =    4

    LOADING THE CONSTRAINED ATOMS AS GROUPS

   5.  REFERENCE ATOM COORDINATES

  default_name
     Mask @CA,C,O,N; matches 49639 atoms

--------------------------------------------------------------------------------
   3.  ATOMIC COORDINATES AND VELOCITIES
--------------------------------------------------------------------------------

default_name
 begin time read from input coords =   450.000 ps

 Number of triangulated 3-point waters found:    43675

     Sum of charges from parm topology file =  -0.00000069
     Forcing neutrality...

--------------------------------------------------------------------------------
   4.  RESULTS
 NSTEP =     2500   TIME(PS) =     455.000  TEMP(K) =   298.01  PRESS =  -153.8
 Etot   =   -366698.4755  EKtot   =     97984.3906  EPtot      =   -464682.8661
 BOND   =      5456.0767  ANGLE   =     14256.9044  DIHED      =     21971.9162
 1-4 NB =      6471.1792  1-4 EEL =     55025.9076  VDWAALS    =     48214.2791
 EELEC  =   -636542.3896  EHBOND  =         0.0000  RESTRAINT  =     20463.2603
 EAMBER (non-restraint)  =   -485146.1264
 EKCMT  =     38880.4818  VIRIAL  =     44323.7223  VOLUME     =   1639191.7058
                                                    Density    =         1.0026
 ------------------------------------------------------------------------------

      A V E R A G E S   O V E R      40 S T E P S

 NSTEP =   100000   TIME(PS) =     650.000  TEMP(K) =   299.82  PRESS =   -12.4
 Etot   =   -351331.9387  EKtot   =     98579.5311  EPtot      =   -449911.4697
 BOND   =      5514.4665  ANGLE   =     14282.9366  DIHED      =     21797.6814
 1-4 NB =      6416.5676  1-4 EEL =     54819.5043  VDWAALS    =     48065.3174
 EELEC  =   -637646.3586  EHBOND  =         0.0000  RESTRAINT  =     36838.4150
 EAMBER (non-restraint)  =   -486749.8847
 EKCMT  =     39259.9641  VIRIAL  =     39691.0452  VOLUME     =   1605237.9212
                                                    Density    =         1.0238
 ------------------------------------------------------------------------------

      R M S  F L U C T U A T I O N S

 NSTEP =   100000   TIME(PS) =     650.000  TEMP(K) =     0.85  PRESS =    87.1
 Etot   =      3016.1812  EKtot   =       278.8204  EPtot      =      2876.1089
 BOND   =        58.9163  ANGLE   =        90.1973  DIHED      =        70.7148
 1-4 NB =        40.3056  1-4 EEL =        84.4511  VDWAALS    =       295.9980
 EELEC  =       606.9945  EHBOND  =         0.0000  RESTRAINT  =      3197.3323
 EAMBER (non-restraint)  =      -321.2234
 EKCMT  =       146.6019  VIRIAL  =      3021.8834  VOLUME     =      6228.4940
                                                    Density    =         0.0039
 ------------------------------------------------------------------------------
